27
Coordinates from ORCA-job tio2_9
  Ti  -0.00009466162147      0.00027470237400      3.16395183422196
  Ti  2.21479418296201     -0.00002583576612      1.44884748693633
  Ti  -1.52719072862606     -0.04075758986494      0.73068346321126
  Ti  -1.21856494733931     -2.76196804913148      2.31864940287177
  Ti  0.90433434650065     -2.16067274121424      0.04988607798751
  Ti  -1.65117422168450      1.03371815650244     -2.04765159967055
  Ti  -0.29317215554022      3.53098564551399     -2.10573853170383
  Ti  1.59814763022643      1.59832460013380     -1.36058292011163
  Ti  0.37259064602386     -1.06812205795072     -2.43407103479388
  O   1.80971149842094      0.40745505437523      3.15952134524307
  O   2.54757945533424     -1.58151919886891      0.69111327210910
  O   -0.48192588731627     -1.56670473756588      3.65884872906941
  O   0.42424292663940     -0.52529950821634      1.37417058771663
  O   2.38748013295823      1.31664244299255      0.27604223754933
  O   -1.32211405752556      0.88155909938571      2.33077077145833
  O   -2.58804539931614      0.68070460682308     -0.55625796546222
  O   -0.28539233313201     -0.78446022447683     -0.79640616750119
  O   0.11066536851718     -3.30981717018641      1.03447906391467
  O   -2.20574826681019     -1.51240060956842      1.22892576137184
  O   1.00371317111811     -2.61466389601466     -1.73185100892010
  O   -2.09687577804536     -3.93877295469411      2.89886768661777
  O   1.65775214825729      0.18436011291025     -2.48268383302559
  O   -0.67240938779833      4.73116861499218     -1.15449162200198
  O   -1.10489254764809     -0.29645182957369     -3.17457630039065
  O   -0.20162064252091      1.83331741847921     -1.06399592218022
  O   -1.79917981840300      2.57865685773937     -2.82603542643003
  O   1.61981389798922      3.12219975110227     -2.15997591196163
