57
Coordinates from ORCA-job tio2_19
  Ti  -0.00000990833428     -0.00010906788464      3.39914198399349
  Ti  4.10310698085844      0.00003152949128     -0.36174296563177
  Ti  4.57222655272926      2.82605824859544      0.67076926613608
  Ti  1.25830613785483      1.43341626361777      1.18195138994027
  Ti  -2.85432328974639      0.86557921087486      2.96050850318416
  Ti  -1.15034124067378     -3.55222488280132      2.09260175524443
  Ti  0.91666043646777     -2.57872358877450      3.72552398679937
  Ti  2.15875944568475     -1.61739399883941      0.80623351009363
  Ti  -0.28232842958271      1.83739654565032     -3.94645178050135
  Ti  1.72131982848278      0.32770658353148     -2.52932494665108
  Ti  2.26675884660534      3.64400948521091     -0.62619296034816
  Ti  -0.34982864976344      3.00366962894890     -1.32357680870742
  Ti  -0.53658630376870     -0.43630679691090     -0.11025208399537
  Ti  -2.59272661313091      1.84942334544160      0.27660603795255
  Ti  -2.02324054887825     -0.21708456285716     -3.14905784933638
  Ti  -0.04296450690036     -2.34989875145465     -3.18105392455041
  Ti  -0.35736808895050     -3.41968636818377     -0.63042419760658
  Ti  -3.13367891807347     -1.58265036447696      1.63386712266926
  Ti  -4.01604901064847     -0.23340518681305     -1.03228836106651
  O   0.85612920205009      1.62831627990098      2.82199862498528
  O   3.77396041432609     -1.76913219555133      0.12244740661467
  O   5.46720369095219      3.66018629887091      1.66821924114804
  O   2.52853949063935      2.93556012460854      1.00954927629249
  O   5.31365267095770      1.13754434465432      0.13547762747897
  O   -1.51867573340261      0.69132507894715      4.12514019371067
  O   2.85523628090745      0.38688908961008      0.88916933659701
  O   -3.96943253079886     -0.54989256730380      2.87927422024462
  O   -2.85912195586313     -3.20813773249131      2.41504228590159
  O   -0.94956300349900     -4.58182258542883      0.61561461397085
  O   2.14729509901698     -2.35593778741057      2.49974662501647
  O   -0.55840701308033     -1.85952633498460      3.02313662158157
  O   0.58171800473962     -0.38966926935605      1.51310380141824
  O   1.00360401177255     -0.81857371734552      4.54358112282548
  O   0.06055681718278     -4.13341227831639      3.37465937197783
  O   1.20480946867515     -2.95657814108373      0.00405771209691
  O   -1.87889104572975      1.02071224491948     -4.40147066526436
  O   -0.41005259568095      0.87512927247313     -2.42978899968915
  O   -0.41534328688596      3.38210398136602     -3.11481465317791
  O   -0.42791523384517      1.58923296631432      0.22837852642675
  O   1.41491452334822      1.27559690145611     -4.08266086644843
  O   3.99028235970200      3.87104240964176     -0.81659364182172
  O   3.42582075521924      0.32120910620750     -2.00812782300097
  O   0.50232804955326      4.36155136215605     -0.66667386901784
  O   1.58248658323516      2.20792451390671     -1.38875123389069
  O   1.12565500800270     -0.40244825159717     -0.74803760158267
  O   -0.79664057640253     -1.70732417892756     -1.66891866630504
  O   -3.00732756726492      2.36722595062634      1.96751538119477
  O   -4.30912660485587      1.31687185252578     -0.27215450279023
  O   -1.30733056391703     -2.12742209301765      0.65437709360042
  O   -2.13496917680700      3.13718521125827     -0.78598052454952
  O   -2.25425308709821      0.16530703312766     -0.93562132491469
  O   1.41206116237608     -1.34533148388779     -3.21146443074531
  O   -0.06571684390358     -3.96319616462051     -2.34844289199239
  O   -2.02414490293536      0.07469588202026      1.56139045028206
  O   -1.38423744945969     -1.59334899516791     -4.11975091065946
  O   -4.14391141066210     -1.59413573171197      0.18514288267834
  O   -3.80620694162258     -0.45006983413554     -2.80841307285740
