24
Coordinates from ORCA-job tio2_8
  Ti  -0.00481146288504      0.00704586888714      2.40382307365299
  Ti  2.49878435517656      0.00994760022366      1.18755574228674
  Ti  1.25287113621599      2.05168753848550     -0.22636828340239
  Ti  -1.58665611399291      2.46441056980491      1.16274755095086
  Ti  1.58661895447323     -2.46444151651239     -1.16279501349160
  Ti  -1.25286982046823     -2.05166531585698      0.22641607065816
  Ti  0.00484762823152     -0.00705752979754     -2.40381155784200
  Ti  -2.49876717581110     -0.00998540145975     -1.18761310856804
  O   0.72778152944958      0.55205204695465      0.76672835489702
  O   -2.52019321930804      1.32929427282911     -0.10455919007147
  O   -0.96254827963714      1.41099217251623      2.65963546599209
  O   1.75693761377248     -0.23855289173334      2.83322750980833
  O   2.89144652886836      1.63954850317918      0.48733300080978
  O   -2.53869930082617      3.63039784802300      1.63494996268810
  O   0.06686200399352      3.12913989210393      0.38990198956089
  O   0.92724303514706      1.44886852412913     -1.88809890833893
  O   2.52020590791972     -1.32932028245643      0.10446960928582
  O   2.53858326299160     -3.63047326869982     -1.63505219006743
  O   -0.06688502926727     -3.12912485461454     -0.38985642470652
  O   -0.92725271900410     -1.44888668171500      1.88818080869985
  O   0.96257450243146     -1.41100529016196     -2.65967971618482
  O   -2.89143208808125     -1.63955993787159     -0.48734828285855
  O   -1.75687046790288      0.23853337168824     -2.83326763121396
  O   -0.72775913295274     -0.55207320160057     -0.76672819019116
