6
Coordinates from ORCA-job tio2_2
  Ti  0.00131344538087     -0.00336448217985      1.33756828570689
  Ti  -0.00134017556853      0.00335984333830     -1.33753011273589
  O   1.39489838092077     -0.00441718582592     -2.10978664623508
  O   -0.00717034611072     -1.23128158123697     -0.00131713389386
  O   0.00728643431457      1.23127935916360      0.00135318244249
  O   -1.39501797026832      0.00440857761384      2.10966622134653
