33
Coordinates from ORCA-job tio2_11
  Ti  -0.00011690845946      0.00021155467048      2.77909521358717
  Ti  2.22136796291076     -0.00018491033853      1.12341468911786
  Ti  -0.25209582481216     -2.17758728476784     -0.02570829848505
  Ti  -3.22128400293004      0.49450313919939      1.14452925607006
  Ti  3.02965602368567     -0.09503983563143     -3.62224860373467
  Ti  0.52585588600851      2.40839198161760     -0.35947571944466
  Ti  -2.18356405111817     -2.31476672160086      2.57559102573622
  Ti  2.46819869285030     -1.67513146177143     -1.39245137146610
  Ti  -1.80011177559900      0.14439500891462     -1.64230378214446
  Ti  -1.46834984871475      2.34568250248753      2.13979221989541
  Ti  0.57191247819587      1.16088987775164     -2.93690146647177
  O   1.13328412438408     -2.83298663356693     -0.96825366318542
  O   -3.46112675759488     -1.04964274192361      1.87390720988916
  O   -3.24963663392520      0.64006747256637     -0.66383846117406
  O   -1.38848295825375      0.63597647886936      1.43943360788893
  O   1.86527488879996     -0.00258892622160      2.85650483879818
  O   -0.83013708594158     -1.27398805535451      3.51891387310925
  O   -1.10861247472181     -3.06684340071835      1.16633359630073
  O   -1.45207355913806     -1.51969435402867     -1.20834176042121
  O   0.57926703706746     -0.78739360212435      0.92173800598525
  O   4.19067399567470      0.88408760926834     -3.20028732168465
  O   -0.62703467794504      3.22578604118427      0.80131348813784
  O   1.58000350342471      0.95828565667448     -4.32515792812253
  O   1.73055348916921     -0.12251711876561     -2.08805042379159
  O   -2.85960231975417     -3.41823476494436      3.47797866854914
  O   3.27185567771134     -1.06890736777143      0.12929812436436
  O   1.90079917779734      1.65930430936004      0.49746782056081
  O   3.39822429578065     -1.83395504243354     -2.83881719426277
  O   -1.14559448788627      0.59130720773912     -3.26581966166429
  O   -0.38744982768107      0.96751869789707     -0.90310923412399
  O   -3.25501015651052      2.07799011275351      2.07001546770502
  O   -0.44576827763888      1.69058906682626      3.42514461821146
  O   0.88545873888825      2.77361617469304     -2.06769545485462
